[VMEM] WARNING: physical memory size is smaller than virtual memory size.

*** ChampSim Multicore Out-of-Order Simulator ***
Warmup Instructions: 1000000
Simulation Instructions: 5000000
Number of CPUs: 1
Page size: 4096

Off-chip DRAM Size: 16 GiB Channels: 1 Width: 64-bit Data Rate: 3205 MT/s
Warmup finished CPU 0 instructions: 1000002 cycles: 369523 cumulative IPC: 2.706 (Simulation time: 00 hr 00 min 07 sec)
Warmup complete CPU 0 instructions: 1000002 cycles: 369523 cumulative IPC: 2.706 (Simulation time: 00 hr 00 min 07 sec)
Simulation finished CPU 0 instructions: 5000001 cycles: 10787530 cumulative IPC: 0.4635 (Simulation time: 00 hr 03 min 02 sec)
Simulation complete CPU 0 instructions: 5000001 cycles: 10787530 cumulative IPC: 0.4635 (Simulation time: 00 hr 03 min 02 sec)

ChampSim completed all CPUs

=== Simulation ===
CPU 0 runs /home/zhuyihan/code/PF-LLM/traces/619.lbm_s-2677B.champsimtrace.xz

Region of Interest Statistics

CPU 0 cumulative IPC: 0.4635 instructions: 5000001 cycles: 10787530
CPU 0 Branch Prediction Accuracy: 94.85% MPKI: 0.9052 Average ROB Occupancy at Mispredict: 213
Branch type MPKI
BRANCH_DIRECT_JUMP: 0
BRANCH_INDIRECT: 0
BRANCH_CONDITIONAL: 0.9052
BRANCH_DIRECT_CALL: 0
BRANCH_INDIRECT_CALL: 0
BRANCH_RETURN: 0

cpu0->cpu0_STLB TOTAL        ACCESS:       6650 HIT:       3040 MISS:       3610 MSHR_MERGE:          0
cpu0->cpu0_STLB LOAD         ACCESS:       6650 HIT:       3040 MISS:       3610 MSHR_MERGE:          0
cpu0->cpu0_STLB RFO          ACCESS:          0 HIT:          0 MISS:          0 MSHR_MERGE:          0
cpu0->cpu0_STLB PREFETCH     ACCESS:          0 HIT:          0 MISS:          0 MSHR_MERGE:          0
cpu0->cpu0_STLB WRITE        ACCESS:          0 HIT:          0 MISS:          0 MSHR_MERGE:          0
cpu0->cpu0_STLB TRANSLATION  ACCESS:          0 HIT:          0 MISS:          0 MSHR_MERGE:          0
cpu0->cpu0_STLB PREFETCH REQUESTED:          0 ISSUED:          0 USEFUL:          0 USELESS:          0
cpu0->cpu0_STLB AVERAGE MISS LATENCY: 1147 cycles
cpu0->cpu0_L2C TOTAL        ACCESS:     752234 HIT:     499163 MISS:     253071 MSHR_MERGE:       2120
cpu0->cpu0_L2C LOAD         ACCESS:      57721 HIT:      15112 MISS:      42609 MSHR_MERGE:        559
cpu0->cpu0_L2C RFO          ACCESS:     325987 HIT:     146655 MISS:     179332 MSHR_MERGE:          0
cpu0->cpu0_L2C PREFETCH     ACCESS:      38472 HIT:      11410 MISS:      27062 MSHR_MERGE:       1561
cpu0->cpu0_L2C WRITE        ACCESS:     325985 HIT:     325985 MISS:          0 MSHR_MERGE:          0
cpu0->cpu0_L2C TRANSLATION  ACCESS:       4069 HIT:          1 MISS:       4068 MSHR_MERGE:          0
cpu0->cpu0_L2C PREFETCH REQUESTED:      38477 ISSUED:      38456 USEFUL:      15671 USELESS:          0
cpu0->cpu0_L2C AVERAGE MISS LATENCY: 509.6 cycles
cpu0->cpu0_L1I TOTAL        ACCESS:     757794 HIT:     757794 MISS:          0 MSHR_MERGE:          0
cpu0->cpu0_L1I LOAD         ACCESS:     757794 HIT:     757794 MISS:          0 MSHR_MERGE:          0
cpu0->cpu0_L1I RFO          ACCESS:          0 HIT:          0 MISS:          0 MSHR_MERGE:          0
cpu0->cpu0_L1I PREFETCH     ACCESS:          0 HIT:          0 MISS:          0 MSHR_MERGE:          0
cpu0->cpu0_L1I WRITE        ACCESS:          0 HIT:          0 MISS:          0 MSHR_MERGE:          0
cpu0->cpu0_L1I TRANSLATION  ACCESS:          0 HIT:          0 MISS:          0 MSHR_MERGE:          0
cpu0->cpu0_L1I PREFETCH REQUESTED:          0 ISSUED:          0 USEFUL:          0 USELESS:          0
cpu0->cpu0_L1I AVERAGE MISS LATENCY: - cycles
cpu0->cpu0_L1D TOTAL        ACCESS:    1221858 HIT:     743950 MISS:     477908 MSHR_MERGE:      90137
cpu0->cpu0_L1D LOAD         ACCESS:     309715 HIT:     179407 MISS:     130308 MSHR_MERGE:      72587
cpu0->cpu0_L1D RFO          ACCESS:          0 HIT:          0 MISS:          0 MSHR_MERGE:          0
cpu0->cpu0_L1D PREFETCH     ACCESS:          0 HIT:          0 MISS:          0 MSHR_MERGE:          0
cpu0->cpu0_L1D WRITE        ACCESS:     904914 HIT:     561383 MISS:     343531 MSHR_MERGE:      17550
cpu0->cpu0_L1D TRANSLATION  ACCESS:       7229 HIT:       3160 MISS:       4069 MSHR_MERGE:          0
cpu0->cpu0_L1D PREFETCH REQUESTED:          0 ISSUED:          0 USEFUL:          0 USELESS:          0
cpu0->cpu0_L1D AVERAGE MISS LATENCY: 306.6 cycles
cpu0->cpu0_ITLB TOTAL        ACCESS:     552592 HIT:     552592 MISS:          0 MSHR_MERGE:          0
cpu0->cpu0_ITLB LOAD         ACCESS:     552592 HIT:     552592 MISS:          0 MSHR_MERGE:          0
cpu0->cpu0_ITLB RFO          ACCESS:          0 HIT:          0 MISS:          0 MSHR_MERGE:          0
cpu0->cpu0_ITLB PREFETCH     ACCESS:          0 HIT:          0 MISS:          0 MSHR_MERGE:          0
cpu0->cpu0_ITLB WRITE        ACCESS:          0 HIT:          0 MISS:          0 MSHR_MERGE:          0
cpu0->cpu0_ITLB TRANSLATION  ACCESS:          0 HIT:          0 MISS:          0 MSHR_MERGE:          0
cpu0->cpu0_ITLB PREFETCH REQUESTED:          0 ISSUED:          0 USEFUL:          0 USELESS:          0
cpu0->cpu0_ITLB AVERAGE MISS LATENCY: - cycles
cpu0->cpu0_DTLB TOTAL        ACCESS:    1143227 HIT:    1118465 MISS:      24762 MSHR_MERGE:      18112
cpu0->cpu0_DTLB LOAD         ACCESS:    1143227 HIT:    1118465 MISS:      24762 MSHR_MERGE:      18112
cpu0->cpu0_DTLB RFO          ACCESS:          0 HIT:          0 MISS:          0 MSHR_MERGE:          0
cpu0->cpu0_DTLB PREFETCH     ACCESS:          0 HIT:          0 MISS:          0 MSHR_MERGE:          0
cpu0->cpu0_DTLB WRITE        ACCESS:          0 HIT:          0 MISS:          0 MSHR_MERGE:          0
cpu0->cpu0_DTLB TRANSLATION  ACCESS:          0 HIT:          0 MISS:          0 MSHR_MERGE:          0
cpu0->cpu0_DTLB PREFETCH REQUESTED:          0 ISSUED:          0 USEFUL:          0 USELESS:          0
cpu0->cpu0_DTLB AVERAGE MISS LATENCY: 627.9 cycles
cpu0->LLC TOTAL        ACCESS:     430295 HIT:     193815 MISS:     236480 MSHR_MERGE:       1514
cpu0->LLC LOAD         ACCESS:      42050 HIT:       4036 MISS:      38014 MSHR_MERGE:        389
cpu0->LLC RFO          ACCESS:     179332 HIT:       6165 MISS:     173167 MSHR_MERGE:          0
cpu0->LLC PREFETCH     ACCESS:      25501 HIT:       4274 MISS:      21227 MSHR_MERGE:       1125
cpu0->LLC WRITE        ACCESS:     179344 HIT:     179339 MISS:          5 MSHR_MERGE:          0
cpu0->LLC TRANSLATION  ACCESS:       4068 HIT:          1 MISS:       4067 MSHR_MERGE:          0
cpu0->LLC PREFETCH REQUESTED:          0 ISSUED:          0 USEFUL:          0 USELESS:          0
cpu0->LLC AVERAGE MISS LATENCY: 517.2 cycles

DRAM Statistics

Channel 0 RQ ROW_BUFFER_HIT:      13133
  ROW_BUFFER_MISS:     221823
  AVG DBUS CONGESTED CYCLE: 7.227
Channel 0 WQ ROW_BUFFER_HIT:      26205
  ROW_BUFFER_MISS:     146559
  FULL:          0
Channel 0 REFRESHES ISSUED:        899
