[VMEM] WARNING: physical memory size is smaller than virtual memory size.

*** ChampSim Multicore Out-of-Order Simulator ***
Warmup Instructions: 1000000
Simulation Instructions: 5000000
Number of CPUs: 1
Page size: 4096

Off-chip DRAM Size: 16 GiB Channels: 1 Width: 64-bit Data Rate: 3205 MT/s
Warmup finished CPU 0 instructions: 1000002 cycles: 369666 cumulative IPC: 2.705 (Simulation time: 00 hr 00 min 09 sec)
Warmup complete CPU 0 instructions: 1000002 cycles: 369666 cumulative IPC: 2.705 (Simulation time: 00 hr 00 min 09 sec)
Simulation finished CPU 0 instructions: 5000003 cycles: 10107932 cumulative IPC: 0.4947 (Simulation time: 00 hr 02 min 43 sec)
Simulation complete CPU 0 instructions: 5000003 cycles: 10107932 cumulative IPC: 0.4947 (Simulation time: 00 hr 02 min 43 sec)

ChampSim completed all CPUs

=== Simulation ===
CPU 0 runs /home/zhuyihan/code/PF-LLM/traces/619.lbm_s-2677B.champsimtrace.xz

Region of Interest Statistics

CPU 0 cumulative IPC: 0.4947 instructions: 5000003 cycles: 10107932
CPU 0 Branch Prediction Accuracy: 94.85% MPKI: 0.9052 Average ROB Occupancy at Mispredict: 212.4
Branch type MPKI
BRANCH_DIRECT_JUMP: 0
BRANCH_INDIRECT: 0
BRANCH_CONDITIONAL: 0.9052
BRANCH_DIRECT_CALL: 0
BRANCH_INDIRECT_CALL: 0
BRANCH_RETURN: 0

cpu0->cpu0_STLB TOTAL        ACCESS:       6650 HIT:       3040 MISS:       3610 MSHR_MERGE:          0
cpu0->cpu0_STLB LOAD         ACCESS:       6650 HIT:       3040 MISS:       3610 MSHR_MERGE:          0
cpu0->cpu0_STLB RFO          ACCESS:          0 HIT:          0 MISS:          0 MSHR_MERGE:          0
cpu0->cpu0_STLB PREFETCH     ACCESS:          0 HIT:          0 MISS:          0 MSHR_MERGE:          0
cpu0->cpu0_STLB WRITE        ACCESS:          0 HIT:          0 MISS:          0 MSHR_MERGE:          0
cpu0->cpu0_STLB TRANSLATION  ACCESS:          0 HIT:          0 MISS:          0 MSHR_MERGE:          0
cpu0->cpu0_STLB PREFETCH REQUESTED:          0 ISSUED:          0 USEFUL:          0 USELESS:          0
cpu0->cpu0_STLB AVERAGE MISS LATENCY: 1226 cycles
cpu0->cpu0_L2C TOTAL        ACCESS:     755885 HIT:     489126 MISS:     266759 MSHR_MERGE:      14901
cpu0->cpu0_L2C LOAD         ACCESS:      57721 HIT:      17027 MISS:      40694 MSHR_MERGE:      13399
cpu0->cpu0_L2C RFO          ACCESS:     325748 HIT:     145985 MISS:     179763 MSHR_MERGE:          0
cpu0->cpu0_L2C PREFETCH     ACCESS:      42602 HIT:        368 MISS:      42234 MSHR_MERGE:       1502
cpu0->cpu0_L2C WRITE        ACCESS:     325745 HIT:     325745 MISS:          0 MSHR_MERGE:          0
cpu0->cpu0_L2C TRANSLATION  ACCESS:       4069 HIT:          1 MISS:       4068 MSHR_MERGE:          0
cpu0->cpu0_L2C PREFETCH REQUESTED:      42604 ISSUED:      42586 USEFUL:      30426 USELESS:          4
cpu0->cpu0_L2C AVERAGE MISS LATENCY: 530.2 cycles
cpu0->cpu0_L1I TOTAL        ACCESS:     756896 HIT:     756896 MISS:          0 MSHR_MERGE:          0
cpu0->cpu0_L1I LOAD         ACCESS:     756896 HIT:     756896 MISS:          0 MSHR_MERGE:          0
cpu0->cpu0_L1I RFO          ACCESS:          0 HIT:          0 MISS:          0 MSHR_MERGE:          0
cpu0->cpu0_L1I PREFETCH     ACCESS:          0 HIT:          0 MISS:          0 MSHR_MERGE:          0
cpu0->cpu0_L1I WRITE        ACCESS:          0 HIT:          0 MISS:          0 MSHR_MERGE:          0
cpu0->cpu0_L1I TRANSLATION  ACCESS:          0 HIT:          0 MISS:          0 MSHR_MERGE:          0
cpu0->cpu0_L1I PREFETCH REQUESTED:          0 ISSUED:          0 USEFUL:          0 USELESS:          0
cpu0->cpu0_L1I AVERAGE MISS LATENCY: - cycles
cpu0->cpu0_L1D TOTAL        ACCESS:    1208655 HIT:     747922 MISS:     460733 MSHR_MERGE:      73193
cpu0->cpu0_L1D LOAD         ACCESS:     297438 HIT:     184948 MISS:     112490 MSHR_MERGE:      54769
cpu0->cpu0_L1D RFO          ACCESS:          0 HIT:          0 MISS:          0 MSHR_MERGE:          0
cpu0->cpu0_L1D PREFETCH     ACCESS:          0 HIT:          0 MISS:          0 MSHR_MERGE:          0
cpu0->cpu0_L1D WRITE        ACCESS:     903988 HIT:     559814 MISS:     344174 MSHR_MERGE:      18424
cpu0->cpu0_L1D TRANSLATION  ACCESS:       7229 HIT:       3160 MISS:       4069 MSHR_MERGE:          0
cpu0->cpu0_L1D PREFETCH REQUESTED:          0 ISSUED:          0 USEFUL:          0 USELESS:          0
cpu0->cpu0_L1D AVERAGE MISS LATENCY: 316.7 cycles
cpu0->cpu0_ITLB TOTAL        ACCESS:     560332 HIT:     560332 MISS:          0 MSHR_MERGE:          0
cpu0->cpu0_ITLB LOAD         ACCESS:     560332 HIT:     560332 MISS:          0 MSHR_MERGE:          0
cpu0->cpu0_ITLB RFO          ACCESS:          0 HIT:          0 MISS:          0 MSHR_MERGE:          0
cpu0->cpu0_ITLB PREFETCH     ACCESS:          0 HIT:          0 MISS:          0 MSHR_MERGE:          0
cpu0->cpu0_ITLB WRITE        ACCESS:          0 HIT:          0 MISS:          0 MSHR_MERGE:          0
cpu0->cpu0_ITLB TRANSLATION  ACCESS:          0 HIT:          0 MISS:          0 MSHR_MERGE:          0
cpu0->cpu0_ITLB PREFETCH REQUESTED:          0 ISSUED:          0 USEFUL:          0 USELESS:          0
cpu0->cpu0_ITLB AVERAGE MISS LATENCY: - cycles
cpu0->cpu0_DTLB TOTAL        ACCESS:    1125120 HIT:    1099143 MISS:      25977 MSHR_MERGE:      19327
cpu0->cpu0_DTLB LOAD         ACCESS:    1125120 HIT:    1099143 MISS:      25977 MSHR_MERGE:      19327
cpu0->cpu0_DTLB RFO          ACCESS:          0 HIT:          0 MISS:          0 MSHR_MERGE:          0
cpu0->cpu0_DTLB PREFETCH     ACCESS:          0 HIT:          0 MISS:          0 MSHR_MERGE:          0
cpu0->cpu0_DTLB WRITE        ACCESS:          0 HIT:          0 MISS:          0 MSHR_MERGE:          0
cpu0->cpu0_DTLB TRANSLATION  ACCESS:          0 HIT:          0 MISS:          0 MSHR_MERGE:          0
cpu0->cpu0_DTLB PREFETCH REQUESTED:          0 ISSUED:          0 USEFUL:          0 USELESS:          0
cpu0->cpu0_DTLB AVERAGE MISS LATENCY: 671.2 cycles
cpu0->LLC TOTAL        ACCESS:     431691 HIT:     191874 MISS:     239817 MSHR_MERGE:       4852
cpu0->LLC LOAD         ACCESS:      27295 HIT:       5342 MISS:      21953 MSHR_MERGE:       4616
cpu0->LLC RFO          ACCESS:     179763 HIT:       6597 MISS:     173166 MSHR_MERGE:          0
cpu0->LLC PREFETCH     ACCESS:      40732 HIT:        104 MISS:      40628 MSHR_MERGE:        236
cpu0->LLC WRITE        ACCESS:     179833 HIT:     179830 MISS:          3 MSHR_MERGE:          0
cpu0->LLC TRANSLATION  ACCESS:       4068 HIT:          1 MISS:       4067 MSHR_MERGE:          0
cpu0->LLC PREFETCH REQUESTED:          0 ISSUED:          0 USEFUL:          0 USELESS:          0
cpu0->LLC AVERAGE MISS LATENCY: 551.8 cycles

DRAM Statistics

Channel 0 RQ ROW_BUFFER_HIT:      15500
  ROW_BUFFER_MISS:     219448
  AVG DBUS CONGESTED CYCLE: 7.556
Channel 0 WQ ROW_BUFFER_HIT:      24604
  ROW_BUFFER_MISS:     148241
  FULL:          0
Channel 0 REFRESHES ISSUED:        843
stream.called 69688
stream.tracker.miss 1093
stream.tracker.hit 68595
stream.dir_match 13842
stream.prefetch_issued 50945
