[VMEM] WARNING: physical memory size is smaller than virtual memory size.

*** ChampSim Multicore Out-of-Order Simulator ***
Warmup Instructions: 1000000
Simulation Instructions: 5000000
Number of CPUs: 1
Page size: 4096

Off-chip DRAM Size: 16 GiB Channels: 1 Width: 64-bit Data Rate: 3205 MT/s
Warmup finished CPU 0 instructions: 1000002 cycles: 369063 cumulative IPC: 2.71 (Simulation time: 00 hr 00 min 06 sec)
Warmup complete CPU 0 instructions: 1000002 cycles: 369063 cumulative IPC: 2.71 (Simulation time: 00 hr 00 min 06 sec)
Simulation finished CPU 0 instructions: 5000003 cycles: 9476774 cumulative IPC: 0.5276 (Simulation time: 00 hr 03 min 01 sec)
Simulation complete CPU 0 instructions: 5000003 cycles: 9476774 cumulative IPC: 0.5276 (Simulation time: 00 hr 03 min 01 sec)

ChampSim completed all CPUs

=== Simulation ===
CPU 0 runs /home/zhuyihan/code/PF-LLM/traces/619.lbm_s-2677B.champsimtrace.xz

Region of Interest Statistics

CPU 0 cumulative IPC: 0.5276 instructions: 5000003 cycles: 9476774
CPU 0 Branch Prediction Accuracy: 94.85% MPKI: 0.9052 Average ROB Occupancy at Mispredict: 212.9
Branch type MPKI
BRANCH_DIRECT_JUMP: 0
BRANCH_INDIRECT: 0
BRANCH_CONDITIONAL: 0.9052
BRANCH_DIRECT_CALL: 0
BRANCH_INDIRECT_CALL: 0
BRANCH_RETURN: 0

cpu0->cpu0_STLB TOTAL        ACCESS:       6650 HIT:       3040 MISS:       3610 MSHR_MERGE:          0
cpu0->cpu0_STLB LOAD         ACCESS:       6650 HIT:       3040 MISS:       3610 MSHR_MERGE:          0
cpu0->cpu0_STLB RFO          ACCESS:          0 HIT:          0 MISS:          0 MSHR_MERGE:          0
cpu0->cpu0_STLB PREFETCH     ACCESS:          0 HIT:          0 MISS:          0 MSHR_MERGE:          0
cpu0->cpu0_STLB WRITE        ACCESS:          0 HIT:          0 MISS:          0 MSHR_MERGE:          0
cpu0->cpu0_STLB TRANSLATION  ACCESS:          0 HIT:          0 MISS:          0 MSHR_MERGE:          0
cpu0->cpu0_STLB PREFETCH REQUESTED:          0 ISSUED:          0 USEFUL:          0 USELESS:          0
cpu0->cpu0_STLB AVERAGE MISS LATENCY: 1335 cycles
cpu0->cpu0_L2C TOTAL        ACCESS:    1202406 HIT:     746119 MISS:     456287 MSHR_MERGE:     163548
cpu0->cpu0_L2C LOAD         ACCESS:      57722 HIT:      32726 MISS:      24996 MSHR_MERGE:      16717
cpu0->cpu0_L2C RFO          ACCESS:     325294 HIT:     145744 MISS:     179550 MSHR_MERGE:          0
cpu0->cpu0_L2C PREFETCH     ACCESS:     490036 HIT:     242361 MISS:     247675 MSHR_MERGE:     146831
cpu0->cpu0_L2C WRITE        ACCESS:     325287 HIT:     325287 MISS:          0 MSHR_MERGE:          0
cpu0->cpu0_L2C TRANSLATION  ACCESS:       4067 HIT:          1 MISS:       4066 MSHR_MERGE:          0
cpu0->cpu0_L2C PREFETCH REQUESTED:     517073 ISSUED:     490020 USEFUL:      49442 USELESS:         15
cpu0->cpu0_L2C AVERAGE MISS LATENCY: 605.8 cycles
cpu0->cpu0_L1I TOTAL        ACCESS:     768895 HIT:     768895 MISS:          0 MSHR_MERGE:          0
cpu0->cpu0_L1I LOAD         ACCESS:     768895 HIT:     768895 MISS:          0 MSHR_MERGE:          0
cpu0->cpu0_L1I RFO          ACCESS:          0 HIT:          0 MISS:          0 MSHR_MERGE:          0
cpu0->cpu0_L1I PREFETCH     ACCESS:          0 HIT:          0 MISS:          0 MSHR_MERGE:          0
cpu0->cpu0_L1I WRITE        ACCESS:          0 HIT:          0 MISS:          0 MSHR_MERGE:          0
cpu0->cpu0_L1I TRANSLATION  ACCESS:          0 HIT:          0 MISS:          0 MSHR_MERGE:          0
cpu0->cpu0_L1I PREFETCH REQUESTED:          0 ISSUED:          0 USEFUL:          0 USELESS:          0
cpu0->cpu0_L1I AVERAGE MISS LATENCY: - cycles
cpu0->cpu0_L1D TOTAL        ACCESS:    1178425 HIT:     746571 MISS:     431854 MSHR_MERGE:      44775
cpu0->cpu0_L1D LOAD         ACCESS:     269421 HIT:     188475 MISS:      80946 MSHR_MERGE:      23224
cpu0->cpu0_L1D RFO          ACCESS:          0 HIT:          0 MISS:          0 MSHR_MERGE:          0
cpu0->cpu0_L1D PREFETCH     ACCESS:          0 HIT:          0 MISS:          0 MSHR_MERGE:          0
cpu0->cpu0_L1D WRITE        ACCESS:     901779 HIT:     554938 MISS:     346841 MSHR_MERGE:      21551
cpu0->cpu0_L1D TRANSLATION  ACCESS:       7225 HIT:       3158 MISS:       4067 MSHR_MERGE:          0
cpu0->cpu0_L1D PREFETCH REQUESTED:          0 ISSUED:          0 USEFUL:          0 USELESS:          0
cpu0->cpu0_L1D AVERAGE MISS LATENCY: 336.2 cycles
cpu0->cpu0_ITLB TOTAL        ACCESS:     576160 HIT:     576160 MISS:          0 MSHR_MERGE:          0
cpu0->cpu0_ITLB LOAD         ACCESS:     576160 HIT:     576160 MISS:          0 MSHR_MERGE:          0
cpu0->cpu0_ITLB RFO          ACCESS:          0 HIT:          0 MISS:          0 MSHR_MERGE:          0
cpu0->cpu0_ITLB PREFETCH     ACCESS:          0 HIT:          0 MISS:          0 MSHR_MERGE:          0
cpu0->cpu0_ITLB WRITE        ACCESS:          0 HIT:          0 MISS:          0 MSHR_MERGE:          0
cpu0->cpu0_ITLB TRANSLATION  ACCESS:          0 HIT:          0 MISS:          0 MSHR_MERGE:          0
cpu0->cpu0_ITLB PREFETCH REQUESTED:          0 ISSUED:          0 USEFUL:          0 USELESS:          0
cpu0->cpu0_ITLB AVERAGE MISS LATENCY: - cycles
cpu0->cpu0_DTLB TOTAL        ACCESS:    1103419 HIT:    1075518 MISS:      27901 MSHR_MERGE:      21251
cpu0->cpu0_DTLB LOAD         ACCESS:    1103419 HIT:    1075518 MISS:      27901 MSHR_MERGE:      21251
cpu0->cpu0_DTLB RFO          ACCESS:          0 HIT:          0 MISS:          0 MSHR_MERGE:          0
cpu0->cpu0_DTLB PREFETCH     ACCESS:          0 HIT:          0 MISS:          0 MSHR_MERGE:          0
cpu0->cpu0_DTLB WRITE        ACCESS:          0 HIT:          0 MISS:          0 MSHR_MERGE:          0
cpu0->cpu0_DTLB TRANSLATION  ACCESS:          0 HIT:          0 MISS:          0 MSHR_MERGE:          0
cpu0->cpu0_DTLB PREFETCH REQUESTED:          0 ISSUED:          0 USEFUL:          0 USELESS:          0
cpu0->cpu0_DTLB AVERAGE MISS LATENCY: 730.1 cycles
cpu0->LLC TOTAL        ACCESS:     472323 HIT:     196931 MISS:     275392 MSHR_MERGE:      40419
cpu0->LLC LOAD         ACCESS:       8279 HIT:       1536 MISS:       6743 MSHR_MERGE:       2209
cpu0->LLC RFO          ACCESS:     179550 HIT:       6384 MISS:     173166 MSHR_MERGE:          0
cpu0->LLC PREFETCH     ACCESS:     100844 HIT:       9427 MISS:      91417 MSHR_MERGE:      38210
cpu0->LLC WRITE        ACCESS:     179584 HIT:     179583 MISS:          1 MSHR_MERGE:          0
cpu0->LLC TRANSLATION  ACCESS:       4066 HIT:          1 MISS:       4065 MSHR_MERGE:          0
cpu0->LLC PREFETCH REQUESTED:          0 ISSUED:          0 USEFUL:          0 USELESS:          0
cpu0->LLC AVERAGE MISS LATENCY: 633 cycles

DRAM Statistics

Channel 0 RQ ROW_BUFFER_HIT:      17355
  ROW_BUFFER_MISS:     217598
  AVG DBUS CONGESTED CYCLE: 7.568
Channel 0 WQ ROW_BUFFER_HIT:      22994
  ROW_BUFFER_MISS:     149871
  FULL:          0
Channel 0 REFRESHES ISSUED:        790
sandbox.called 69689
sandbox.filter_hit 64692
sandbox.filter_add 63156
sandbox.end_of_phase 272
sandbox.end_of_round 17
sandbox.prefetch_generated 544849
sandbox.prefetch_issued 544849
sandbox.top_offsets 3:4303 4:4223 5:4201 2:4182 6:4179 
