[VMEM] WARNING: physical memory size is smaller than virtual memory size.

*** ChampSim Multicore Out-of-Order Simulator ***
Warmup Instructions: 1000000
Simulation Instructions: 5000000
Number of CPUs: 1
Page size: 4096

Off-chip DRAM Size: 16 GiB Channels: 1 Width: 64-bit Data Rate: 3205 MT/s
Warmup finished CPU 0 instructions: 1000002 cycles: 369361 cumulative IPC: 2.707 (Simulation time: 00 hr 00 min 07 sec)
Warmup complete CPU 0 instructions: 1000002 cycles: 369361 cumulative IPC: 2.707 (Simulation time: 00 hr 00 min 07 sec)
Simulation finished CPU 0 instructions: 5000003 cycles: 9365448 cumulative IPC: 0.5339 (Simulation time: 00 hr 02 min 52 sec)
Simulation complete CPU 0 instructions: 5000003 cycles: 9365448 cumulative IPC: 0.5339 (Simulation time: 00 hr 02 min 52 sec)

ChampSim completed all CPUs

=== Simulation ===
CPU 0 runs /home/zhuyihan/code/PF-LLM/traces/619.lbm_s-2677B.champsimtrace.xz

Region of Interest Statistics

CPU 0 cumulative IPC: 0.5339 instructions: 5000003 cycles: 9365448
CPU 0 Branch Prediction Accuracy: 94.85% MPKI: 0.9052 Average ROB Occupancy at Mispredict: 220.8
Branch type MPKI
BRANCH_DIRECT_JUMP: 0
BRANCH_INDIRECT: 0
BRANCH_CONDITIONAL: 0.9052
BRANCH_DIRECT_CALL: 0
BRANCH_INDIRECT_CALL: 0
BRANCH_RETURN: 0

cpu0->cpu0_STLB TOTAL        ACCESS:       6650 HIT:       3040 MISS:       3610 MSHR_MERGE:          0
cpu0->cpu0_STLB LOAD         ACCESS:       6650 HIT:       3040 MISS:       3610 MSHR_MERGE:          0
cpu0->cpu0_STLB RFO          ACCESS:          0 HIT:          0 MISS:          0 MSHR_MERGE:          0
cpu0->cpu0_STLB PREFETCH     ACCESS:          0 HIT:          0 MISS:          0 MSHR_MERGE:          0
cpu0->cpu0_STLB WRITE        ACCESS:          0 HIT:          0 MISS:          0 MSHR_MERGE:          0
cpu0->cpu0_STLB TRANSLATION  ACCESS:          0 HIT:          0 MISS:          0 MSHR_MERGE:          0
cpu0->cpu0_STLB PREFETCH REQUESTED:          0 ISSUED:          0 USEFUL:          0 USELESS:          0
cpu0->cpu0_STLB AVERAGE MISS LATENCY: 1268 cycles
cpu0->cpu0_L2C TOTAL        ACCESS:     769295 HIT:     484592 MISS:     284703 MSHR_MERGE:       4792
cpu0->cpu0_L2C LOAD         ACCESS:      57723 HIT:      12721 MISS:      45002 MSHR_MERGE:       1453
cpu0->cpu0_L2C RFO          ACCESS:     325524 HIT:     146338 MISS:     179186 MSHR_MERGE:          0
cpu0->cpu0_L2C PREFETCH     ACCESS:      56448 HIT:          0 MISS:      56448 MSHR_MERGE:       3339
cpu0->cpu0_L2C WRITE        ACCESS:     325533 HIT:     325532 MISS:          1 MSHR_MERGE:          0
cpu0->cpu0_L2C TRANSLATION  ACCESS:       4067 HIT:          1 MISS:       4066 MSHR_MERGE:          0
cpu0->cpu0_L2C PREFETCH REQUESTED:      60017 ISSUED:      56448 USEFUL:      14172 USELESS:          0
cpu0->cpu0_L2C AVERAGE MISS LATENCY: 530 cycles
cpu0->cpu0_L1I TOTAL        ACCESS:     780485 HIT:     780485 MISS:          0 MSHR_MERGE:          0
cpu0->cpu0_L1I LOAD         ACCESS:     780485 HIT:     780485 MISS:          0 MSHR_MERGE:          0
cpu0->cpu0_L1I RFO          ACCESS:          0 HIT:          0 MISS:          0 MSHR_MERGE:          0
cpu0->cpu0_L1I PREFETCH     ACCESS:          0 HIT:          0 MISS:          0 MSHR_MERGE:          0
cpu0->cpu0_L1I WRITE        ACCESS:          0 HIT:          0 MISS:          0 MSHR_MERGE:          0
cpu0->cpu0_L1I TRANSLATION  ACCESS:          0 HIT:          0 MISS:          0 MSHR_MERGE:          0
cpu0->cpu0_L1I PREFETCH REQUESTED:          0 ISSUED:          0 USEFUL:          0 USELESS:          0
cpu0->cpu0_L1I AVERAGE MISS LATENCY: - cycles
cpu0->cpu0_L1D TOTAL        ACCESS:    1169789 HIT:     734582 MISS:     435207 MSHR_MERGE:      47879
cpu0->cpu0_L1D LOAD         ACCESS:     261347 HIT:     180990 MISS:      80357 MSHR_MERGE:      22634
cpu0->cpu0_L1D RFO          ACCESS:          0 HIT:          0 MISS:          0 MSHR_MERGE:          0
cpu0->cpu0_L1D PREFETCH     ACCESS:          0 HIT:          0 MISS:          0 MSHR_MERGE:          0
cpu0->cpu0_L1D WRITE        ACCESS:     901217 HIT:     550434 MISS:     350783 MSHR_MERGE:      25245
cpu0->cpu0_L1D TRANSLATION  ACCESS:       7225 HIT:       3158 MISS:       4067 MSHR_MERGE:          0
cpu0->cpu0_L1D PREFETCH REQUESTED:          0 ISSUED:          0 USEFUL:          0 USELESS:          0
cpu0->cpu0_L1D AVERAGE MISS LATENCY: 322.1 cycles
cpu0->cpu0_ITLB TOTAL        ACCESS:     590371 HIT:     590371 MISS:          0 MSHR_MERGE:          0
cpu0->cpu0_ITLB LOAD         ACCESS:     590371 HIT:     590371 MISS:          0 MSHR_MERGE:          0
cpu0->cpu0_ITLB RFO          ACCESS:          0 HIT:          0 MISS:          0 MSHR_MERGE:          0
cpu0->cpu0_ITLB PREFETCH     ACCESS:          0 HIT:          0 MISS:          0 MSHR_MERGE:          0
cpu0->cpu0_ITLB WRITE        ACCESS:          0 HIT:          0 MISS:          0 MSHR_MERGE:          0
cpu0->cpu0_ITLB TRANSLATION  ACCESS:          0 HIT:          0 MISS:          0 MSHR_MERGE:          0
cpu0->cpu0_ITLB PREFETCH REQUESTED:          0 ISSUED:          0 USEFUL:          0 USELESS:          0
cpu0->cpu0_ITLB AVERAGE MISS LATENCY: - cycles
cpu0->cpu0_DTLB TOTAL        ACCESS:    1096333 HIT:    1064467 MISS:      31866 MSHR_MERGE:      25216
cpu0->cpu0_DTLB LOAD         ACCESS:    1096333 HIT:    1064467 MISS:      31866 MSHR_MERGE:      25216
cpu0->cpu0_DTLB RFO          ACCESS:          0 HIT:          0 MISS:          0 MSHR_MERGE:          0
cpu0->cpu0_DTLB PREFETCH     ACCESS:          0 HIT:          0 MISS:          0 MSHR_MERGE:          0
cpu0->cpu0_DTLB WRITE        ACCESS:          0 HIT:          0 MISS:          0 MSHR_MERGE:          0
cpu0->cpu0_DTLB TRANSLATION  ACCESS:          0 HIT:          0 MISS:          0 MSHR_MERGE:          0
cpu0->cpu0_DTLB PREFETCH REQUESTED:          0 ISSUED:          0 USEFUL:          0 USELESS:          0
cpu0->cpu0_DTLB AVERAGE MISS LATENCY: 694 cycles
cpu0->LLC TOTAL        ACCESS:     459080 HIT:     223609 MISS:     235471 MSHR_MERGE:        512
cpu0->LLC LOAD         ACCESS:      43549 HIT:      38415 MISS:       5134 MSHR_MERGE:        512
cpu0->LLC RFO          ACCESS:     179184 HIT:       6022 MISS:     173162 MSHR_MERGE:          0
cpu0->LLC PREFETCH     ACCESS:      53109 HIT:          0 MISS:      53109 MSHR_MERGE:          0
cpu0->LLC WRITE        ACCESS:     179172 HIT:     179171 MISS:          1 MSHR_MERGE:          0
cpu0->LLC TRANSLATION  ACCESS:       4066 HIT:          1 MISS:       4065 MSHR_MERGE:          0
cpu0->LLC PREFETCH REQUESTED:          0 ISSUED:          0 USEFUL:          0 USELESS:          0
cpu0->LLC AVERAGE MISS LATENCY: 634.3 cycles

DRAM Statistics

Channel 0 RQ ROW_BUFFER_HIT:      15262
  ROW_BUFFER_MISS:     219685
  AVG DBUS CONGESTED CYCLE: 7.019
Channel 0 WQ ROW_BUFFER_HIT:      20490
  ROW_BUFFER_MISS:     152232
  FULL:          0
Channel 0 REFRESHES ISSUED:        781
sms.called 69690
sms.ft.hit 1094
sms.ft.miss 1094
sms.agt.hit 67502
sms.agt.miss 2188
sms.pht.hit 2095
sms.pht.miss 47
sms.pht.inserts 14
sms.prefetch.generated 65961
sms.prefetch.issued 65961
