[VMEM] WARNING: physical memory size is smaller than virtual memory size.

*** ChampSim Multicore Out-of-Order Simulator ***
Warmup Instructions: 1000000
Simulation Instructions: 5000000
Number of CPUs: 1
Page size: 4096

Off-chip DRAM Size: 16 GiB Channels: 1 Width: 64-bit Data Rate: 3205 MT/s
Warmup finished CPU 0 instructions: 1000001 cycles: 488233 cumulative IPC: 2.048 (Simulation time: 00 hr 00 min 09 sec)
Warmup complete CPU 0 instructions: 1000001 cycles: 488233 cumulative IPC: 2.048 (Simulation time: 00 hr 00 min 09 sec)
Simulation finished CPU 0 instructions: 5000002 cycles: 27160510 cumulative IPC: 0.1841 (Simulation time: 00 hr 03 min 47 sec)
Simulation complete CPU 0 instructions: 5000002 cycles: 27160510 cumulative IPC: 0.1841 (Simulation time: 00 hr 03 min 47 sec)

ChampSim completed all CPUs

=== Simulation ===
CPU 0 runs /home/zhuyihan/code/PF-LLM/traces/605.mcf_s-1554B.champsimtrace.xz

Region of Interest Statistics

CPU 0 cumulative IPC: 0.1841 instructions: 5000002 cycles: 27160510
CPU 0 Branch Prediction Accuracy: 97.04% MPKI: 5.214 Average ROB Occupancy at Mispredict: 50.03
Branch type MPKI
BRANCH_DIRECT_JUMP: 0
BRANCH_INDIRECT: 0
BRANCH_CONDITIONAL: 5.214
BRANCH_DIRECT_CALL: 0
BRANCH_INDIRECT_CALL: 0
BRANCH_RETURN: 0

cpu0->cpu0_STLB TOTAL        ACCESS:      18682 HIT:      18197 MISS:        485 MSHR_MERGE:          0
cpu0->cpu0_STLB LOAD         ACCESS:      18682 HIT:      18197 MISS:        485 MSHR_MERGE:          0
cpu0->cpu0_STLB RFO          ACCESS:          0 HIT:          0 MISS:          0 MSHR_MERGE:          0
cpu0->cpu0_STLB PREFETCH     ACCESS:          0 HIT:          0 MISS:          0 MSHR_MERGE:          0
cpu0->cpu0_STLB WRITE        ACCESS:          0 HIT:          0 MISS:          0 MSHR_MERGE:          0
cpu0->cpu0_STLB TRANSLATION  ACCESS:          0 HIT:          0 MISS:          0 MSHR_MERGE:          0
cpu0->cpu0_STLB PREFETCH REQUESTED:          0 ISSUED:          0 USEFUL:          0 USELESS:          0
cpu0->cpu0_STLB AVERAGE MISS LATENCY: 721.7 cycles
cpu0->cpu0_L2C TOTAL        ACCESS:    2291545 HIT:     675673 MISS:    1615872 MSHR_MERGE:     474144
cpu0->cpu0_L2C LOAD         ACCESS:     713195 HIT:     288286 MISS:     424909 MSHR_MERGE:     153265
cpu0->cpu0_L2C RFO          ACCESS:      16902 HIT:       1163 MISS:      15739 MSHR_MERGE:          2
cpu0->cpu0_L2C PREFETCH     ACCESS:    1536902 HIT:     362320 MISS:    1174582 MSHR_MERGE:     320877
cpu0->cpu0_L2C WRITE        ACCESS:      23711 HIT:      23691 MISS:         20 MSHR_MERGE:          0
cpu0->cpu0_L2C TRANSLATION  ACCESS:        835 HIT:        213 MISS:        622 MSHR_MERGE:          0
cpu0->cpu0_L2C PREFETCH REQUESTED:    1536908 ISSUED:    1536890 USEFUL:     442275 USELESS:     312837
cpu0->cpu0_L2C AVERAGE MISS LATENCY: 198.8 cycles
cpu0->cpu0_L1I TOTAL        ACCESS:    1321170 HIT:    1321170 MISS:          0 MSHR_MERGE:          0
cpu0->cpu0_L1I LOAD         ACCESS:    1321170 HIT:    1321170 MISS:          0 MSHR_MERGE:          0
cpu0->cpu0_L1I RFO          ACCESS:          0 HIT:          0 MISS:          0 MSHR_MERGE:          0
cpu0->cpu0_L1I PREFETCH     ACCESS:          0 HIT:          0 MISS:          0 MSHR_MERGE:          0
cpu0->cpu0_L1I WRITE        ACCESS:          0 HIT:          0 MISS:          0 MSHR_MERGE:          0
cpu0->cpu0_L1I TRANSLATION  ACCESS:          0 HIT:          0 MISS:          0 MSHR_MERGE:          0
cpu0->cpu0_L1I PREFETCH REQUESTED:          0 ISSUED:          0 USEFUL:          0 USELESS:          0
cpu0->cpu0_L1I AVERAGE MISS LATENCY: - cycles
cpu0->cpu0_L1D TOTAL        ACCESS:    2314024 HIT:    1432701 MISS:     881323 MSHR_MERGE:     150388
cpu0->cpu0_L1D LOAD         ACCESS:    1891093 HIT:    1079810 MISS:     811283 MSHR_MERGE:      98089
cpu0->cpu0_L1D RFO          ACCESS:          0 HIT:          0 MISS:          0 MSHR_MERGE:          0
cpu0->cpu0_L1D PREFETCH     ACCESS:          0 HIT:          0 MISS:          0 MSHR_MERGE:          0
cpu0->cpu0_L1D WRITE        ACCESS:     421961 HIT:     352756 MISS:      69205 MSHR_MERGE:      52299
cpu0->cpu0_L1D TRANSLATION  ACCESS:        970 HIT:        135 MISS:        835 MSHR_MERGE:          0
cpu0->cpu0_L1D PREFETCH REQUESTED:          0 ISSUED:          0 USEFUL:          0 USELESS:          0
cpu0->cpu0_L1D AVERAGE MISS LATENCY: 128.6 cycles
cpu0->cpu0_ITLB TOTAL        ACCESS:    1177391 HIT:    1177391 MISS:          0 MSHR_MERGE:          0
cpu0->cpu0_ITLB LOAD         ACCESS:    1177391 HIT:    1177391 MISS:          0 MSHR_MERGE:          0
cpu0->cpu0_ITLB RFO          ACCESS:          0 HIT:          0 MISS:          0 MSHR_MERGE:          0
cpu0->cpu0_ITLB PREFETCH     ACCESS:          0 HIT:          0 MISS:          0 MSHR_MERGE:          0
cpu0->cpu0_ITLB WRITE        ACCESS:          0 HIT:          0 MISS:          0 MSHR_MERGE:          0
cpu0->cpu0_ITLB TRANSLATION  ACCESS:          0 HIT:          0 MISS:          0 MSHR_MERGE:          0
cpu0->cpu0_ITLB PREFETCH REQUESTED:          0 ISSUED:          0 USEFUL:          0 USELESS:          0
cpu0->cpu0_ITLB AVERAGE MISS LATENCY: - cycles
cpu0->cpu0_DTLB TOTAL        ACCESS:    2255220 HIT:    2231931 MISS:      23289 MSHR_MERGE:       4607
cpu0->cpu0_DTLB LOAD         ACCESS:    2255220 HIT:    2231931 MISS:      23289 MSHR_MERGE:       4607
cpu0->cpu0_DTLB RFO          ACCESS:          0 HIT:          0 MISS:          0 MSHR_MERGE:          0
cpu0->cpu0_DTLB PREFETCH     ACCESS:          0 HIT:          0 MISS:          0 MSHR_MERGE:          0
cpu0->cpu0_DTLB WRITE        ACCESS:          0 HIT:          0 MISS:          0 MSHR_MERGE:          0
cpu0->cpu0_DTLB TRANSLATION  ACCESS:          0 HIT:          0 MISS:          0 MSHR_MERGE:          0
cpu0->cpu0_DTLB PREFETCH REQUESTED:          0 ISSUED:          0 USEFUL:          0 USELESS:          0
cpu0->cpu0_DTLB AVERAGE MISS LATENCY: 23.76 cycles
cpu0->LLC TOTAL        ACCESS:    1165040 HIT:      73821 MISS:    1091219 MSHR_MERGE:      41128
cpu0->LLC LOAD         ACCESS:     271644 HIT:      29122 MISS:     242522 MSHR_MERGE:      15962
cpu0->LLC RFO          ACCESS:      15737 HIT:         14 MISS:      15723 MSHR_MERGE:          0
cpu0->LLC PREFETCH     ACCESS:     853705 HIT:      21354 MISS:     832351 MSHR_MERGE:      25166
cpu0->LLC WRITE        ACCESS:      23332 HIT:      23303 MISS:         29 MSHR_MERGE:          0
cpu0->LLC TRANSLATION  ACCESS:        622 HIT:         28 MISS:        594 MSHR_MERGE:          0
cpu0->LLC PREFETCH REQUESTED:          0 ISSUED:          0 USEFUL:          0 USELESS:          0
cpu0->LLC AVERAGE MISS LATENCY: 229.7 cycles

DRAM Statistics

Channel 0 RQ ROW_BUFFER_HIT:      85491
  ROW_BUFFER_MISS:     964514
  AVG DBUS CONGESTED CYCLE: 3.672
Channel 0 WQ ROW_BUFFER_HIT:       2364
  ROW_BUFFER_MISS:      21121
  FULL:          0
Channel 0 REFRESHES ISSUED:       2264
stream.called 870219
stream.tracker.miss 22483
stream.tracker.hit 847736
stream.dir_match 539312
stream.prefetch_issued 1636051
