[VMEM] WARNING: physical memory size is smaller than virtual memory size.

*** ChampSim Multicore Out-of-Order Simulator ***
Warmup Instructions: 1000000
Simulation Instructions: 5000000
Number of CPUs: 1
Page size: 4096

Off-chip DRAM Size: 16 GiB Channels: 1 Width: 64-bit Data Rate: 3205 MT/s
Warmup finished CPU 0 instructions: 1000000 cycles: 488237 cumulative IPC: 2.048 (Simulation time: 00 hr 00 min 21 sec)
Warmup complete CPU 0 instructions: 1000000 cycles: 488237 cumulative IPC: 2.048 (Simulation time: 00 hr 00 min 21 sec)
Simulation finished CPU 0 instructions: 5000001 cycles: 40035015 cumulative IPC: 0.1249 (Simulation time: 00 hr 07 min 59 sec)
Simulation complete CPU 0 instructions: 5000001 cycles: 40035015 cumulative IPC: 0.1249 (Simulation time: 00 hr 07 min 59 sec)

ChampSim completed all CPUs

=== Simulation ===
CPU 0 runs /home/zhuyihan/code/PF-LLM/traces/605.mcf_s-1554B.champsimtrace.xz

Region of Interest Statistics

CPU 0 cumulative IPC: 0.1249 instructions: 5000001 cycles: 40035015
CPU 0 Branch Prediction Accuracy: 97.04% MPKI: 5.214 Average ROB Occupancy at Mispredict: 50.39
Branch type MPKI
BRANCH_DIRECT_JUMP: 0
BRANCH_INDIRECT: 0
BRANCH_CONDITIONAL: 5.214
BRANCH_DIRECT_CALL: 0
BRANCH_INDIRECT_CALL: 0
BRANCH_RETURN: 0

cpu0->cpu0_STLB TOTAL        ACCESS:      18682 HIT:      18197 MISS:        485 MSHR_MERGE:          0
cpu0->cpu0_STLB LOAD         ACCESS:      18682 HIT:      18197 MISS:        485 MSHR_MERGE:          0
cpu0->cpu0_STLB RFO          ACCESS:          0 HIT:          0 MISS:          0 MSHR_MERGE:          0
cpu0->cpu0_STLB PREFETCH     ACCESS:          0 HIT:          0 MISS:          0 MSHR_MERGE:          0
cpu0->cpu0_STLB WRITE        ACCESS:          0 HIT:          0 MISS:          0 MSHR_MERGE:          0
cpu0->cpu0_STLB TRANSLATION  ACCESS:          0 HIT:          0 MISS:          0 MSHR_MERGE:          0
cpu0->cpu0_STLB PREFETCH REQUESTED:          0 ISSUED:          0 USEFUL:          0 USELESS:          0
cpu0->cpu0_STLB AVERAGE MISS LATENCY: 694.7 cycles
cpu0->cpu0_L2C TOTAL        ACCESS:     754650 HIT:      24361 MISS:     730289 MSHR_MERGE:          0
cpu0->cpu0_L2C LOAD         ACCESS:     713196 HIT:        143 MISS:     713053 MSHR_MERGE:          0
cpu0->cpu0_L2C RFO          ACCESS:      16907 HIT:        303 MISS:      16604 MSHR_MERGE:          0
cpu0->cpu0_L2C PREFETCH     ACCESS:          0 HIT:          0 MISS:          0 MSHR_MERGE:          0
cpu0->cpu0_L2C WRITE        ACCESS:      23710 HIT:      23691 MISS:         19 MSHR_MERGE:          0
cpu0->cpu0_L2C TRANSLATION  ACCESS:        837 HIT:        224 MISS:        613 MSHR_MERGE:          0
cpu0->cpu0_L2C PREFETCH REQUESTED:          0 ISSUED:          0 USEFUL:          0 USELESS:          0
cpu0->cpu0_L2C AVERAGE MISS LATENCY: 177.7 cycles
cpu0->cpu0_L1I TOTAL        ACCESS:    1316373 HIT:    1316373 MISS:          0 MSHR_MERGE:          0
cpu0->cpu0_L1I LOAD         ACCESS:    1316373 HIT:    1316373 MISS:          0 MSHR_MERGE:          0
cpu0->cpu0_L1I RFO          ACCESS:          0 HIT:          0 MISS:          0 MSHR_MERGE:          0
cpu0->cpu0_L1I PREFETCH     ACCESS:          0 HIT:          0 MISS:          0 MSHR_MERGE:          0
cpu0->cpu0_L1I WRITE        ACCESS:          0 HIT:          0 MISS:          0 MSHR_MERGE:          0
cpu0->cpu0_L1I TRANSLATION  ACCESS:          0 HIT:          0 MISS:          0 MSHR_MERGE:          0
cpu0->cpu0_L1I PREFETCH REQUESTED:          0 ISSUED:          0 USEFUL:          0 USELESS:          0
cpu0->cpu0_L1I AVERAGE MISS LATENCY: - cycles
cpu0->cpu0_L1D TOTAL        ACCESS:    2313644 HIT:    1396333 MISS:     917311 MSHR_MERGE:     186371
cpu0->cpu0_L1D LOAD         ACCESS:    1888496 HIT:    1029814 MISS:     858682 MSHR_MERGE:     145486
cpu0->cpu0_L1D RFO          ACCESS:          0 HIT:          0 MISS:          0 MSHR_MERGE:          0
cpu0->cpu0_L1D PREFETCH     ACCESS:          0 HIT:          0 MISS:          0 MSHR_MERGE:          0
cpu0->cpu0_L1D WRITE        ACCESS:     424178 HIT:     366386 MISS:      57792 MSHR_MERGE:      40885
cpu0->cpu0_L1D TRANSLATION  ACCESS:        970 HIT:        133 MISS:        837 MSHR_MERGE:          0
cpu0->cpu0_L1D PREFETCH REQUESTED:          0 ISSUED:          0 USEFUL:          0 USELESS:          0
cpu0->cpu0_L1D AVERAGE MISS LATENCY: 186.6 cycles
cpu0->cpu0_ITLB TOTAL        ACCESS:    1166540 HIT:    1166540 MISS:          0 MSHR_MERGE:          0
cpu0->cpu0_ITLB LOAD         ACCESS:    1166540 HIT:    1166540 MISS:          0 MSHR_MERGE:          0
cpu0->cpu0_ITLB RFO          ACCESS:          0 HIT:          0 MISS:          0 MSHR_MERGE:          0
cpu0->cpu0_ITLB PREFETCH     ACCESS:          0 HIT:          0 MISS:          0 MSHR_MERGE:          0
cpu0->cpu0_ITLB WRITE        ACCESS:          0 HIT:          0 MISS:          0 MSHR_MERGE:          0
cpu0->cpu0_ITLB TRANSLATION  ACCESS:          0 HIT:          0 MISS:          0 MSHR_MERGE:          0
cpu0->cpu0_ITLB PREFETCH REQUESTED:          0 ISSUED:          0 USEFUL:          0 USELESS:          0
cpu0->cpu0_ITLB AVERAGE MISS LATENCY: - cycles
cpu0->cpu0_DTLB TOTAL        ACCESS:    2262096 HIT:    2239018 MISS:      23078 MSHR_MERGE:       4396
cpu0->cpu0_DTLB LOAD         ACCESS:    2262096 HIT:    2239018 MISS:      23078 MSHR_MERGE:       4396
cpu0->cpu0_DTLB RFO          ACCESS:          0 HIT:          0 MISS:          0 MSHR_MERGE:          0
cpu0->cpu0_DTLB PREFETCH     ACCESS:          0 HIT:          0 MISS:          0 MSHR_MERGE:          0
cpu0->cpu0_DTLB WRITE        ACCESS:          0 HIT:          0 MISS:          0 MSHR_MERGE:          0
cpu0->cpu0_DTLB TRANSLATION  ACCESS:          0 HIT:          0 MISS:          0 MSHR_MERGE:          0
cpu0->cpu0_DTLB PREFETCH REQUESTED:          0 ISSUED:          0 USEFUL:          0 USELESS:          0
cpu0->cpu0_DTLB AVERAGE MISS LATENCY: 23.06 cycles
cpu0->LLC TOTAL        ACCESS:     753602 HIT:     194331 MISS:     559271 MSHR_MERGE:          0
cpu0->LLC LOAD         ACCESS:     713053 HIT:     170911 MISS:     542142 MSHR_MERGE:          0
cpu0->LLC RFO          ACCESS:      16604 HIT:         65 MISS:      16539 MSHR_MERGE:          0
cpu0->LLC PREFETCH     ACCESS:          0 HIT:          0 MISS:          0 MSHR_MERGE:          0
cpu0->LLC WRITE        ACCESS:      23332 HIT:      23328 MISS:          4 MSHR_MERGE:          0
cpu0->LLC TRANSLATION  ACCESS:        613 HIT:         27 MISS:        586 MSHR_MERGE:          0
cpu0->LLC PREFETCH REQUESTED:          0 ISSUED:          0 USEFUL:          0 USELESS:          0
cpu0->LLC AVERAGE MISS LATENCY: 211.5 cycles

DRAM Statistics

Channel 0 RQ ROW_BUFFER_HIT:       7858
  ROW_BUFFER_MISS:     551383
  AVG DBUS CONGESTED CYCLE: 5.783
Channel 0 WQ ROW_BUFFER_HIT:       6302
  ROW_BUFFER_MISS:      15916
  FULL:          0
Channel 0 REFRESHES ISSUED:       3336
