[VMEM] WARNING: physical memory size is smaller than virtual memory size.

*** ChampSim Multicore Out-of-Order Simulator ***
Warmup Instructions: 1000000
Simulation Instructions: 5000000
Number of CPUs: 1
Page size: 4096

Off-chip DRAM Size: 16 GiB Channels: 1 Width: 64-bit Data Rate: 3205 MT/s
Warmup finished CPU 0 instructions: 1000002 cycles: 488452 cumulative IPC: 2.047 (Simulation time: 00 hr 00 min 09 sec)
Warmup complete CPU 0 instructions: 1000002 cycles: 488452 cumulative IPC: 2.047 (Simulation time: 00 hr 00 min 09 sec)
Simulation finished CPU 0 instructions: 5000003 cycles: 41434351 cumulative IPC: 0.1207 (Simulation time: 00 hr 07 min 13 sec)
Simulation complete CPU 0 instructions: 5000003 cycles: 41434351 cumulative IPC: 0.1207 (Simulation time: 00 hr 07 min 13 sec)

ChampSim completed all CPUs

=== Simulation ===
CPU 0 runs /home/zhuyihan/code/PF-LLM/traces/605.mcf_s-1554B.champsimtrace.xz

Region of Interest Statistics

CPU 0 cumulative IPC: 0.1207 instructions: 5000003 cycles: 41434351
CPU 0 Branch Prediction Accuracy: 97.04% MPKI: 5.214 Average ROB Occupancy at Mispredict: 50.21
Branch type MPKI
BRANCH_DIRECT_JUMP: 0
BRANCH_INDIRECT: 0
BRANCH_CONDITIONAL: 5.214
BRANCH_DIRECT_CALL: 0
BRANCH_INDIRECT_CALL: 0
BRANCH_RETURN: 0

cpu0->cpu0_STLB TOTAL        ACCESS:      18683 HIT:      18198 MISS:        485 MSHR_MERGE:          0
cpu0->cpu0_STLB LOAD         ACCESS:      18683 HIT:      18198 MISS:        485 MSHR_MERGE:          0
cpu0->cpu0_STLB RFO          ACCESS:          0 HIT:          0 MISS:          0 MSHR_MERGE:          0
cpu0->cpu0_STLB PREFETCH     ACCESS:          0 HIT:          0 MISS:          0 MSHR_MERGE:          0
cpu0->cpu0_STLB WRITE        ACCESS:          0 HIT:          0 MISS:          0 MSHR_MERGE:          0
cpu0->cpu0_STLB TRANSLATION  ACCESS:          0 HIT:          0 MISS:          0 MSHR_MERGE:          0
cpu0->cpu0_STLB PREFETCH REQUESTED:          0 ISSUED:          0 USEFUL:          0 USELESS:          0
cpu0->cpu0_STLB AVERAGE MISS LATENCY: 694.1 cycles
cpu0->cpu0_L2C TOTAL        ACCESS:     889803 HIT:      97472 MISS:     792331 MSHR_MERGE:       3568
cpu0->cpu0_L2C LOAD         ACCESS:     713196 HIT:      68899 MISS:     644297 MSHR_MERGE:       2442
cpu0->cpu0_L2C RFO          ACCESS:      16906 HIT:        574 MISS:      16332 MSHR_MERGE:         29
cpu0->cpu0_L2C PREFETCH     ACCESS:     135155 HIT:       4086 MISS:     131069 MSHR_MERGE:       1097
cpu0->cpu0_L2C WRITE        ACCESS:      23710 HIT:      23691 MISS:         19 MSHR_MERGE:          0
cpu0->cpu0_L2C TRANSLATION  ACCESS:        836 HIT:        222 MISS:        614 MSHR_MERGE:          0
cpu0->cpu0_L2C PREFETCH REQUESTED:     135153 ISSUED:     135153 USEFUL:      71499 USELESS:      58705
cpu0->cpu0_L2C AVERAGE MISS LATENCY: 197.1 cycles
cpu0->cpu0_L1I TOTAL        ACCESS:    1315477 HIT:    1315477 MISS:          0 MSHR_MERGE:          0
cpu0->cpu0_L1I LOAD         ACCESS:    1315477 HIT:    1315477 MISS:          0 MSHR_MERGE:          0
cpu0->cpu0_L1I RFO          ACCESS:          0 HIT:          0 MISS:          0 MSHR_MERGE:          0
cpu0->cpu0_L1I PREFETCH     ACCESS:          0 HIT:          0 MISS:          0 MSHR_MERGE:          0
cpu0->cpu0_L1I WRITE        ACCESS:          0 HIT:          0 MISS:          0 MSHR_MERGE:          0
cpu0->cpu0_L1I TRANSLATION  ACCESS:          0 HIT:          0 MISS:          0 MSHR_MERGE:          0
cpu0->cpu0_L1I PREFETCH REQUESTED:          0 ISSUED:          0 USEFUL:          0 USELESS:          0
cpu0->cpu0_L1I AVERAGE MISS LATENCY: - cycles
cpu0->cpu0_L1D TOTAL        ACCESS:    2315257 HIT:    1400289 MISS:     914968 MSHR_MERGE:     184028
cpu0->cpu0_L1D LOAD         ACCESS:    1890115 HIT:    1035942 MISS:     854173 MSHR_MERGE:     140975
cpu0->cpu0_L1D RFO          ACCESS:          0 HIT:          0 MISS:          0 MSHR_MERGE:          0
cpu0->cpu0_L1D PREFETCH     ACCESS:          0 HIT:          0 MISS:          0 MSHR_MERGE:          0
cpu0->cpu0_L1D WRITE        ACCESS:     424172 HIT:     364213 MISS:      59959 MSHR_MERGE:      43053
cpu0->cpu0_L1D TRANSLATION  ACCESS:        970 HIT:        134 MISS:        836 MSHR_MERGE:          0
cpu0->cpu0_L1D PREFETCH REQUESTED:          0 ISSUED:          0 USEFUL:          0 USELESS:          0
cpu0->cpu0_L1D AVERAGE MISS LATENCY: 187.3 cycles
cpu0->cpu0_ITLB TOTAL        ACCESS:    1166531 HIT:    1166531 MISS:          0 MSHR_MERGE:          0
cpu0->cpu0_ITLB LOAD         ACCESS:    1166531 HIT:    1166531 MISS:          0 MSHR_MERGE:          0
cpu0->cpu0_ITLB RFO          ACCESS:          0 HIT:          0 MISS:          0 MSHR_MERGE:          0
cpu0->cpu0_ITLB PREFETCH     ACCESS:          0 HIT:          0 MISS:          0 MSHR_MERGE:          0
cpu0->cpu0_ITLB WRITE        ACCESS:          0 HIT:          0 MISS:          0 MSHR_MERGE:          0
cpu0->cpu0_ITLB TRANSLATION  ACCESS:          0 HIT:          0 MISS:          0 MSHR_MERGE:          0
cpu0->cpu0_ITLB PREFETCH REQUESTED:          0 ISSUED:          0 USEFUL:          0 USELESS:          0
cpu0->cpu0_ITLB AVERAGE MISS LATENCY: - cycles
cpu0->cpu0_DTLB TOTAL        ACCESS:    2264234 HIT:    2241035 MISS:      23199 MSHR_MERGE:       4516
cpu0->cpu0_DTLB LOAD         ACCESS:    2264234 HIT:    2241035 MISS:      23199 MSHR_MERGE:       4516
cpu0->cpu0_DTLB RFO          ACCESS:          0 HIT:          0 MISS:          0 MSHR_MERGE:          0
cpu0->cpu0_DTLB PREFETCH     ACCESS:          0 HIT:          0 MISS:          0 MSHR_MERGE:          0
cpu0->cpu0_DTLB WRITE        ACCESS:          0 HIT:          0 MISS:          0 MSHR_MERGE:          0
cpu0->cpu0_DTLB TRANSLATION  ACCESS:          0 HIT:          0 MISS:          0 MSHR_MERGE:          0
cpu0->cpu0_DTLB PREFETCH REQUESTED:          0 ISSUED:          0 USEFUL:          0 USELESS:          0
cpu0->cpu0_DTLB AVERAGE MISS LATENCY: 23.05 cycles
cpu0->LLC TOTAL        ACCESS:     812075 HIT:     144916 MISS:     667159 MSHR_MERGE:          2
cpu0->LLC LOAD         ACCESS:     641854 HIT:     104291 MISS:     537563 MSHR_MERGE:          2
cpu0->LLC RFO          ACCESS:      16303 HIT:         39 MISS:      16264 MSHR_MERGE:          0
cpu0->LLC PREFETCH     ACCESS:     129972 HIT:      17233 MISS:     112739 MSHR_MERGE:          0
cpu0->LLC WRITE        ACCESS:      23332 HIT:      23325 MISS:          7 MSHR_MERGE:          0
cpu0->LLC TRANSLATION  ACCESS:        614 HIT:         28 MISS:        586 MSHR_MERGE:          0
cpu0->LLC PREFETCH REQUESTED:          0 ISSUED:          0 USEFUL:          0 USELESS:          0
cpu0->LLC AVERAGE MISS LATENCY: 215.9 cycles

DRAM Statistics

Channel 0 RQ ROW_BUFFER_HIT:      11050
  ROW_BUFFER_MISS:     656069
  AVG DBUS CONGESTED CYCLE: 5.335
Channel 0 WQ ROW_BUFFER_HIT:       6089
  ROW_BUFFER_MISS:      16739
  FULL:          0
Channel 0 REFRESHES ISSUED:       3453
