[VMEM] WARNING: physical memory size is smaller than virtual memory size.

*** ChampSim Multicore Out-of-Order Simulator ***
Warmup Instructions: 1000000
Simulation Instructions: 5000000
Number of CPUs: 1
Page size: 4096

Off-chip DRAM Size: 16 GiB Channels: 1 Width: 64-bit Data Rate: 3205 MT/s
Warmup finished CPU 0 instructions: 1000003 cycles: 756876 cumulative IPC: 1.321 (Simulation time: 00 hr 00 min 25 sec)
Warmup complete CPU 0 instructions: 1000003 cycles: 756876 cumulative IPC: 1.321 (Simulation time: 00 hr 00 min 25 sec)
Simulation finished CPU 0 instructions: 5000000 cycles: 17856162 cumulative IPC: 0.28 (Simulation time: 00 hr 03 min 55 sec)
Simulation complete CPU 0 instructions: 5000000 cycles: 17856162 cumulative IPC: 0.28 (Simulation time: 00 hr 03 min 55 sec)

ChampSim completed all CPUs

=== Simulation ===
CPU 0 runs /home/zhuyihan/code/PF-LLM/traces/620.omnetpp_s-874B.champsimtrace.xz

Region of Interest Statistics

CPU 0 cumulative IPC: 0.28 instructions: 5000000 cycles: 17856162
CPU 0 Branch Prediction Accuracy: 94.01% MPKI: 12.43 Average ROB Occupancy at Mispredict: 51.84
Branch type MPKI
BRANCH_DIRECT_JUMP: 0.9022
BRANCH_INDIRECT: 0.1338
BRANCH_CONDITIONAL: 10.25
BRANCH_DIRECT_CALL: 0.0024
BRANCH_INDIRECT_CALL: 0.7356
BRANCH_RETURN: 0.4028

cpu0->cpu0_STLB TOTAL        ACCESS:     101875 HIT:      80827 MISS:      21048 MSHR_MERGE:          0
cpu0->cpu0_STLB LOAD         ACCESS:     101875 HIT:      80827 MISS:      21048 MSHR_MERGE:          0
cpu0->cpu0_STLB RFO          ACCESS:          0 HIT:          0 MISS:          0 MSHR_MERGE:          0
cpu0->cpu0_STLB PREFETCH     ACCESS:          0 HIT:          0 MISS:          0 MSHR_MERGE:          0
cpu0->cpu0_STLB WRITE        ACCESS:          0 HIT:          0 MISS:          0 MSHR_MERGE:          0
cpu0->cpu0_STLB TRANSLATION  ACCESS:          0 HIT:          0 MISS:          0 MSHR_MERGE:          0
cpu0->cpu0_STLB PREFETCH REQUESTED:          0 ISSUED:          0 USEFUL:          0 USELESS:          0
cpu0->cpu0_STLB AVERAGE MISS LATENCY: 472.6 cycles
cpu0->cpu0_L2C TOTAL        ACCESS:     191287 HIT:      90260 MISS:     101027 MSHR_MERGE:          0
cpu0->cpu0_L2C LOAD         ACCESS:      85071 HIT:      28522 MISS:      56549 MSHR_MERGE:          0
cpu0->cpu0_L2C RFO          ACCESS:      12876 HIT:       3982 MISS:       8894 MSHR_MERGE:          0
cpu0->cpu0_L2C PREFETCH     ACCESS:          0 HIT:          0 MISS:          0 MSHR_MERGE:          0
cpu0->cpu0_L2C WRITE        ACCESS:      47072 HIT:      46988 MISS:         84 MSHR_MERGE:          0
cpu0->cpu0_L2C TRANSLATION  ACCESS:      46268 HIT:      10768 MISS:      35500 MSHR_MERGE:          0
cpu0->cpu0_L2C PREFETCH REQUESTED:          0 ISSUED:          0 USEFUL:          0 USELESS:          0
cpu0->cpu0_L2C AVERAGE MISS LATENCY: 151.2 cycles
cpu0->cpu0_L1I TOTAL        ACCESS:     686561 HIT:     683878 MISS:       2683 MSHR_MERGE:        680
cpu0->cpu0_L1I LOAD         ACCESS:     686561 HIT:     683878 MISS:       2683 MSHR_MERGE:        680
cpu0->cpu0_L1I RFO          ACCESS:          0 HIT:          0 MISS:          0 MSHR_MERGE:          0
cpu0->cpu0_L1I PREFETCH     ACCESS:          0 HIT:          0 MISS:          0 MSHR_MERGE:          0
cpu0->cpu0_L1I WRITE        ACCESS:          0 HIT:          0 MISS:          0 MSHR_MERGE:          0
cpu0->cpu0_L1I TRANSLATION  ACCESS:          0 HIT:          0 MISS:          0 MSHR_MERGE:          0
cpu0->cpu0_L1I PREFETCH REQUESTED:          0 ISSUED:          0 USEFUL:          0 USELESS:          0
cpu0->cpu0_L1I AVERAGE MISS LATENCY: 18.17 cycles
cpu0->cpu0_L1D TOTAL        ACCESS:    2002594 HIT:    1812642 MISS:     189952 MSHR_MERGE:      47740
cpu0->cpu0_L1D LOAD         ACCESS:    1042451 HIT:     936422 MISS:     106029 MSHR_MERGE:      22961
cpu0->cpu0_L1D RFO          ACCESS:          0 HIT:          0 MISS:          0 MSHR_MERGE:          0
cpu0->cpu0_L1D PREFETCH     ACCESS:          0 HIT:          0 MISS:          0 MSHR_MERGE:          0
cpu0->cpu0_L1D WRITE        ACCESS:     909936 HIT:     872406 MISS:      37530 MSHR_MERGE:      24654
cpu0->cpu0_L1D TRANSLATION  ACCESS:      50207 HIT:       3814 MISS:      46393 MSHR_MERGE:        125
cpu0->cpu0_L1D PREFETCH REQUESTED:          0 ISSUED:          0 USEFUL:          0 USELESS:          0
cpu0->cpu0_L1D AVERAGE MISS LATENCY: 116 cycles
cpu0->cpu0_ITLB TOTAL        ACCESS:     606429 HIT:     591216 MISS:      15213 MSHR_MERGE:       7323
cpu0->cpu0_ITLB LOAD         ACCESS:     606429 HIT:     591216 MISS:      15213 MSHR_MERGE:       7323
cpu0->cpu0_ITLB RFO          ACCESS:          0 HIT:          0 MISS:          0 MSHR_MERGE:          0
cpu0->cpu0_ITLB PREFETCH     ACCESS:          0 HIT:          0 MISS:          0 MSHR_MERGE:          0
cpu0->cpu0_ITLB WRITE        ACCESS:          0 HIT:          0 MISS:          0 MSHR_MERGE:          0
cpu0->cpu0_ITLB TRANSLATION  ACCESS:          0 HIT:          0 MISS:          0 MSHR_MERGE:          0
cpu0->cpu0_ITLB PREFETCH REQUESTED:          0 ISSUED:          0 USEFUL:          0 USELESS:          0
cpu0->cpu0_ITLB AVERAGE MISS LATENCY: 8.649 cycles
cpu0->cpu0_DTLB TOTAL        ACCESS:    1844928 HIT:    1735301 MISS:     109627 MSHR_MERGE:      15642
cpu0->cpu0_DTLB LOAD         ACCESS:    1844928 HIT:    1735301 MISS:     109627 MSHR_MERGE:      15642
cpu0->cpu0_DTLB RFO          ACCESS:          0 HIT:          0 MISS:          0 MSHR_MERGE:          0
cpu0->cpu0_DTLB PREFETCH     ACCESS:          0 HIT:          0 MISS:          0 MSHR_MERGE:          0
cpu0->cpu0_DTLB WRITE        ACCESS:          0 HIT:          0 MISS:          0 MSHR_MERGE:          0
cpu0->cpu0_DTLB TRANSLATION  ACCESS:          0 HIT:          0 MISS:          0 MSHR_MERGE:          0
cpu0->cpu0_DTLB PREFETCH REQUESTED:          0 ISSUED:          0 USEFUL:          0 USELESS:          0
cpu0->cpu0_DTLB AVERAGE MISS LATENCY: 110.7 cycles
cpu0->LLC TOTAL        ACCESS:     133389 HIT:      59861 MISS:      73528 MSHR_MERGE:          0
cpu0->LLC LOAD         ACCESS:      56549 HIT:      12702 MISS:      43847 MSHR_MERGE:          0
cpu0->LLC RFO          ACCESS:       8894 HIT:       3807 MISS:       5087 MSHR_MERGE:          0
cpu0->LLC PREFETCH     ACCESS:          0 HIT:          0 MISS:          0 MSHR_MERGE:          0
cpu0->LLC WRITE        ACCESS:      32446 HIT:      32343 MISS:        103 MSHR_MERGE:          0
cpu0->LLC TRANSLATION  ACCESS:      35500 HIT:      11009 MISS:      24491 MSHR_MERGE:          0
cpu0->LLC PREFETCH REQUESTED:          0 ISSUED:          0 USEFUL:          0 USELESS:          0
cpu0->LLC AVERAGE MISS LATENCY: 186.1 cycles

DRAM Statistics

Channel 0 RQ ROW_BUFFER_HIT:        308
  ROW_BUFFER_MISS:      73116
  AVG DBUS CONGESTED CYCLE: 20.27
Channel 0 WQ ROW_BUFFER_HIT:       5944
  ROW_BUFFER_MISS:      13315
  FULL:          0
Channel 0 REFRESHES ISSUED:       1488
