[VMEM] WARNING: physical memory size is smaller than virtual memory size.

*** ChampSim Multicore Out-of-Order Simulator ***
Warmup Instructions: 1000000
Simulation Instructions: 5000000
Number of CPUs: 1
Page size: 4096

Off-chip DRAM Size: 16 GiB Channels: 1 Width: 64-bit Data Rate: 3205 MT/s
Warmup finished CPU 0 instructions: 1000003 cycles: 757254 cumulative IPC: 1.321 (Simulation time: 00 hr 00 min 17 sec)
Warmup complete CPU 0 instructions: 1000003 cycles: 757254 cumulative IPC: 1.321 (Simulation time: 00 hr 00 min 17 sec)
Simulation finished CPU 0 instructions: 5000000 cycles: 17746873 cumulative IPC: 0.2817 (Simulation time: 00 hr 02 min 43 sec)
Simulation complete CPU 0 instructions: 5000000 cycles: 17746873 cumulative IPC: 0.2817 (Simulation time: 00 hr 02 min 43 sec)

ChampSim completed all CPUs

=== Simulation ===
CPU 0 runs /home/zhuyihan/code/PF-LLM/traces/620.omnetpp_s-874B.champsimtrace.xz

Region of Interest Statistics

CPU 0 cumulative IPC: 0.2817 instructions: 5000000 cycles: 17746873
CPU 0 Branch Prediction Accuracy: 94.01% MPKI: 12.43 Average ROB Occupancy at Mispredict: 51.54
Branch type MPKI
BRANCH_DIRECT_JUMP: 0.9022
BRANCH_INDIRECT: 0.1338
BRANCH_CONDITIONAL: 10.25
BRANCH_DIRECT_CALL: 0.0024
BRANCH_INDIRECT_CALL: 0.7356
BRANCH_RETURN: 0.4028

cpu0->cpu0_STLB TOTAL        ACCESS:     101867 HIT:      80818 MISS:      21049 MSHR_MERGE:          0
cpu0->cpu0_STLB LOAD         ACCESS:     101867 HIT:      80818 MISS:      21049 MSHR_MERGE:          0
cpu0->cpu0_STLB RFO          ACCESS:          0 HIT:          0 MISS:          0 MSHR_MERGE:          0
cpu0->cpu0_STLB PREFETCH     ACCESS:          0 HIT:          0 MISS:          0 MSHR_MERGE:          0
cpu0->cpu0_STLB WRITE        ACCESS:          0 HIT:          0 MISS:          0 MSHR_MERGE:          0
cpu0->cpu0_STLB TRANSLATION  ACCESS:          0 HIT:          0 MISS:          0 MSHR_MERGE:          0
cpu0->cpu0_STLB PREFETCH REQUESTED:          0 ISSUED:          0 USEFUL:          0 USELESS:          0
cpu0->cpu0_STLB AVERAGE MISS LATENCY: 489.4 cycles
cpu0->cpu0_L2C TOTAL        ACCESS:     244281 HIT:     112602 MISS:     131679 MSHR_MERGE:       5630
cpu0->cpu0_L2C LOAD         ACCESS:      85080 HIT:      34393 MISS:      50687 MSHR_MERGE:       1016
cpu0->cpu0_L2C RFO          ACCESS:      12866 HIT:       3590 MISS:       9276 MSHR_MERGE:          5
cpu0->cpu0_L2C PREFETCH     ACCESS:      52976 HIT:      17642 MISS:      35334 MSHR_MERGE:       4609
cpu0->cpu0_L2C WRITE        ACCESS:      47080 HIT:      46981 MISS:         99 MSHR_MERGE:          0
cpu0->cpu0_L2C TRANSLATION  ACCESS:      46279 HIT:       9996 MISS:      36283 MSHR_MERGE:          0
cpu0->cpu0_L2C PREFETCH REQUESTED:      52976 ISSUED:      52976 USEFUL:       9400 USELESS:      21262
cpu0->cpu0_L2C AVERAGE MISS LATENCY: 151.3 cycles
cpu0->cpu0_L1I TOTAL        ACCESS:     686366 HIT:     683690 MISS:       2676 MSHR_MERGE:        678
cpu0->cpu0_L1I LOAD         ACCESS:     686366 HIT:     683690 MISS:       2676 MSHR_MERGE:        678
cpu0->cpu0_L1I RFO          ACCESS:          0 HIT:          0 MISS:          0 MSHR_MERGE:          0
cpu0->cpu0_L1I PREFETCH     ACCESS:          0 HIT:          0 MISS:          0 MSHR_MERGE:          0
cpu0->cpu0_L1I WRITE        ACCESS:          0 HIT:          0 MISS:          0 MSHR_MERGE:          0
cpu0->cpu0_L1I TRANSLATION  ACCESS:          0 HIT:          0 MISS:          0 MSHR_MERGE:          0
cpu0->cpu0_L1I PREFETCH REQUESTED:          0 ISSUED:          0 USEFUL:          0 USELESS:          0
cpu0->cpu0_L1I AVERAGE MISS LATENCY: 19.28 cycles
cpu0->cpu0_L1D TOTAL        ACCESS:    2001099 HIT:    1813932 MISS:     187167 MSHR_MERGE:      44940
cpu0->cpu0_L1D LOAD         ACCESS:    1041751 HIT:     938841 MISS:     102910 MSHR_MERGE:      19828
cpu0->cpu0_L1D RFO          ACCESS:          0 HIT:          0 MISS:          0 MSHR_MERGE:          0
cpu0->cpu0_L1D PREFETCH     ACCESS:          0 HIT:          0 MISS:          0 MSHR_MERGE:          0
cpu0->cpu0_L1D WRITE        ACCESS:     909139 HIT:     871278 MISS:      37861 MSHR_MERGE:      24995
cpu0->cpu0_L1D TRANSLATION  ACCESS:      50209 HIT:       3813 MISS:      46396 MSHR_MERGE:        117
cpu0->cpu0_L1D PREFETCH REQUESTED:          0 ISSUED:          0 USEFUL:          0 USELESS:          0
cpu0->cpu0_L1D AVERAGE MISS LATENCY: 111 cycles
cpu0->cpu0_ITLB TOTAL        ACCESS:     606426 HIT:     591213 MISS:      15213 MSHR_MERGE:       7323
cpu0->cpu0_ITLB LOAD         ACCESS:     606426 HIT:     591213 MISS:      15213 MSHR_MERGE:       7323
cpu0->cpu0_ITLB RFO          ACCESS:          0 HIT:          0 MISS:          0 MSHR_MERGE:          0
cpu0->cpu0_ITLB PREFETCH     ACCESS:          0 HIT:          0 MISS:          0 MSHR_MERGE:          0
cpu0->cpu0_ITLB WRITE        ACCESS:          0 HIT:          0 MISS:          0 MSHR_MERGE:          0
cpu0->cpu0_ITLB TRANSLATION  ACCESS:          0 HIT:          0 MISS:          0 MSHR_MERGE:          0
cpu0->cpu0_ITLB PREFETCH REQUESTED:          0 ISSUED:          0 USEFUL:          0 USELESS:          0
cpu0->cpu0_ITLB AVERAGE MISS LATENCY: 9.024 cycles
cpu0->cpu0_DTLB TOTAL        ACCESS:    1842611 HIT:    1732909 MISS:     109702 MSHR_MERGE:      15725
cpu0->cpu0_DTLB LOAD         ACCESS:    1842611 HIT:    1732909 MISS:     109702 MSHR_MERGE:      15725
cpu0->cpu0_DTLB RFO          ACCESS:          0 HIT:          0 MISS:          0 MSHR_MERGE:          0
cpu0->cpu0_DTLB PREFETCH     ACCESS:          0 HIT:          0 MISS:          0 MSHR_MERGE:          0
cpu0->cpu0_DTLB WRITE        ACCESS:          0 HIT:          0 MISS:          0 MSHR_MERGE:          0
cpu0->cpu0_DTLB TRANSLATION  ACCESS:          0 HIT:          0 MISS:          0 MSHR_MERGE:          0
cpu0->cpu0_DTLB PREFETCH REQUESTED:          0 ISSUED:          0 USEFUL:          0 USELESS:          0
cpu0->cpu0_DTLB AVERAGE MISS LATENCY: 114.5 cycles
cpu0->LLC TOTAL        ACCESS:     159896 HIT:      66118 MISS:      93778 MSHR_MERGE:          0
cpu0->LLC LOAD         ACCESS:      49671 HIT:      13072 MISS:      36599 MSHR_MERGE:          0
cpu0->LLC RFO          ACCESS:       9271 HIT:       3780 MISS:       5491 MSHR_MERGE:          0
cpu0->LLC PREFETCH     ACCESS:      30725 HIT:       5021 MISS:      25704 MSHR_MERGE:          0
cpu0->LLC WRITE        ACCESS:      33946 HIT:      33762 MISS:        184 MSHR_MERGE:          0
cpu0->LLC TRANSLATION  ACCESS:      36283 HIT:      10483 MISS:      25800 MSHR_MERGE:          0
cpu0->LLC PREFETCH REQUESTED:          0 ISSUED:          0 USEFUL:          0 USELESS:          0
cpu0->LLC AVERAGE MISS LATENCY: 190.4 cycles

DRAM Statistics

Channel 0 RQ ROW_BUFFER_HIT:        703
  ROW_BUFFER_MISS:      92889
  AVG DBUS CONGESTED CYCLE: 17.07
Channel 0 WQ ROW_BUFFER_HIT:       6620
  ROW_BUFFER_MISS:      15279
  FULL:          0
Channel 0 REFRESHES ISSUED:       1479
stream.called 103716
stream.tracker.miss 48592
stream.tracker.hit 55124
stream.dir_match 19149
stream.prefetch_issued 64990
