[VMEM] WARNING: physical memory size is smaller than virtual memory size.

*** ChampSim Multicore Out-of-Order Simulator ***
Warmup Instructions: 1000000
Simulation Instructions: 5000000
Number of CPUs: 1
Page size: 4096

Off-chip DRAM Size: 16 GiB Channels: 1 Width: 64-bit Data Rate: 3205 MT/s
Warmup finished CPU 0 instructions: 1000003 cycles: 756106 cumulative IPC: 1.323 (Simulation time: 00 hr 00 min 12 sec)
Warmup complete CPU 0 instructions: 1000003 cycles: 756106 cumulative IPC: 1.323 (Simulation time: 00 hr 00 min 12 sec)
Simulation finished CPU 0 instructions: 5000000 cycles: 17783075 cumulative IPC: 0.2812 (Simulation time: 00 hr 02 min 53 sec)
Simulation complete CPU 0 instructions: 5000000 cycles: 17783075 cumulative IPC: 0.2812 (Simulation time: 00 hr 02 min 53 sec)

ChampSim completed all CPUs

=== Simulation ===
CPU 0 runs /home/zhuyihan/code/PF-LLM/traces/620.omnetpp_s-874B.champsimtrace.xz

Region of Interest Statistics

CPU 0 cumulative IPC: 0.2812 instructions: 5000000 cycles: 17783075
CPU 0 Branch Prediction Accuracy: 94.01% MPKI: 12.43 Average ROB Occupancy at Mispredict: 51.87
Branch type MPKI
BRANCH_DIRECT_JUMP: 0.9022
BRANCH_INDIRECT: 0.1338
BRANCH_CONDITIONAL: 10.25
BRANCH_DIRECT_CALL: 0.0024
BRANCH_INDIRECT_CALL: 0.7356
BRANCH_RETURN: 0.4028

cpu0->cpu0_STLB TOTAL        ACCESS:     101893 HIT:      80845 MISS:      21048 MSHR_MERGE:          0
cpu0->cpu0_STLB LOAD         ACCESS:     101893 HIT:      80845 MISS:      21048 MSHR_MERGE:          0
cpu0->cpu0_STLB RFO          ACCESS:          0 HIT:          0 MISS:          0 MSHR_MERGE:          0
cpu0->cpu0_STLB PREFETCH     ACCESS:          0 HIT:          0 MISS:          0 MSHR_MERGE:          0
cpu0->cpu0_STLB WRITE        ACCESS:          0 HIT:          0 MISS:          0 MSHR_MERGE:          0
cpu0->cpu0_STLB TRANSLATION  ACCESS:          0 HIT:          0 MISS:          0 MSHR_MERGE:          0
cpu0->cpu0_STLB PREFETCH REQUESTED:          0 ISSUED:          0 USEFUL:          0 USELESS:          0
cpu0->cpu0_STLB AVERAGE MISS LATENCY: 473.9 cycles
cpu0->cpu0_L2C TOTAL        ACCESS:     193593 HIT:      92095 MISS:     101498 MSHR_MERGE:          0
cpu0->cpu0_L2C LOAD         ACCESS:      85067 HIT:      29080 MISS:      55987 MSHR_MERGE:          0
cpu0->cpu0_L2C RFO          ACCESS:      12878 HIT:       3911 MISS:       8967 MSHR_MERGE:          0
cpu0->cpu0_L2C PREFETCH     ACCESS:       2300 HIT:       1319 MISS:        981 MSHR_MERGE:          0
cpu0->cpu0_L2C WRITE        ACCESS:      47075 HIT:      46985 MISS:         90 MSHR_MERGE:          0
cpu0->cpu0_L2C TRANSLATION  ACCESS:      46273 HIT:      10800 MISS:      35473 MSHR_MERGE:          0
cpu0->cpu0_L2C PREFETCH REQUESTED:       2300 ISSUED:       2300 USEFUL:        637 USELESS:        351
cpu0->cpu0_L2C AVERAGE MISS LATENCY: 151.3 cycles
cpu0->cpu0_L1I TOTAL        ACCESS:     686584 HIT:     683911 MISS:       2673 MSHR_MERGE:        673
cpu0->cpu0_L1I LOAD         ACCESS:     686584 HIT:     683911 MISS:       2673 MSHR_MERGE:        673
cpu0->cpu0_L1I RFO          ACCESS:          0 HIT:          0 MISS:          0 MSHR_MERGE:          0
cpu0->cpu0_L1I PREFETCH     ACCESS:          0 HIT:          0 MISS:          0 MSHR_MERGE:          0
cpu0->cpu0_L1I WRITE        ACCESS:          0 HIT:          0 MISS:          0 MSHR_MERGE:          0
cpu0->cpu0_L1I TRANSLATION  ACCESS:          0 HIT:          0 MISS:          0 MSHR_MERGE:          0
cpu0->cpu0_L1I PREFETCH REQUESTED:          0 ISSUED:          0 USEFUL:          0 USELESS:          0
cpu0->cpu0_L1I AVERAGE MISS LATENCY: 18.43 cycles
cpu0->cpu0_L1D TOTAL        ACCESS:    2002593 HIT:    1812580 MISS:     190013 MSHR_MERGE:      47795
cpu0->cpu0_L1D LOAD         ACCESS:    1042472 HIT:     936452 MISS:     106020 MSHR_MERGE:      22953
cpu0->cpu0_L1D RFO          ACCESS:          0 HIT:          0 MISS:          0 MSHR_MERGE:          0
cpu0->cpu0_L1D PREFETCH     ACCESS:          0 HIT:          0 MISS:          0 MSHR_MERGE:          0
cpu0->cpu0_L1D WRITE        ACCESS:     909915 HIT:     872323 MISS:      37592 MSHR_MERGE:      24714
cpu0->cpu0_L1D TRANSLATION  ACCESS:      50206 HIT:       3805 MISS:      46401 MSHR_MERGE:        128
cpu0->cpu0_L1D PREFETCH REQUESTED:          0 ISSUED:          0 USEFUL:          0 USELESS:          0
cpu0->cpu0_L1D AVERAGE MISS LATENCY: 115.5 cycles
cpu0->cpu0_ITLB TOTAL        ACCESS:     606467 HIT:     591250 MISS:      15217 MSHR_MERGE:       7327
cpu0->cpu0_ITLB LOAD         ACCESS:     606467 HIT:     591250 MISS:      15217 MSHR_MERGE:       7327
cpu0->cpu0_ITLB RFO          ACCESS:          0 HIT:          0 MISS:          0 MSHR_MERGE:          0
cpu0->cpu0_ITLB PREFETCH     ACCESS:          0 HIT:          0 MISS:          0 MSHR_MERGE:          0
cpu0->cpu0_ITLB WRITE        ACCESS:          0 HIT:          0 MISS:          0 MSHR_MERGE:          0
cpu0->cpu0_ITLB TRANSLATION  ACCESS:          0 HIT:          0 MISS:          0 MSHR_MERGE:          0
cpu0->cpu0_ITLB PREFETCH REQUESTED:          0 ISSUED:          0 USEFUL:          0 USELESS:          0
cpu0->cpu0_ITLB AVERAGE MISS LATENCY: 8.59 cycles
cpu0->cpu0_DTLB TOTAL        ACCESS:    1844973 HIT:    1735307 MISS:     109666 MSHR_MERGE:      15663
cpu0->cpu0_DTLB LOAD         ACCESS:    1844973 HIT:    1735307 MISS:     109666 MSHR_MERGE:      15663
cpu0->cpu0_DTLB RFO          ACCESS:          0 HIT:          0 MISS:          0 MSHR_MERGE:          0
cpu0->cpu0_DTLB PREFETCH     ACCESS:          0 HIT:          0 MISS:          0 MSHR_MERGE:          0
cpu0->cpu0_DTLB WRITE        ACCESS:          0 HIT:          0 MISS:          0 MSHR_MERGE:          0
cpu0->cpu0_DTLB TRANSLATION  ACCESS:          0 HIT:          0 MISS:          0 MSHR_MERGE:          0
cpu0->cpu0_DTLB PREFETCH REQUESTED:          0 ISSUED:          0 USEFUL:          0 USELESS:          0
cpu0->cpu0_DTLB AVERAGE MISS LATENCY: 111 cycles
cpu0->LLC TOTAL        ACCESS:     133942 HIT:      60071 MISS:      73871 MSHR_MERGE:          0
cpu0->LLC LOAD         ACCESS:      55987 HIT:      12638 MISS:      43349 MSHR_MERGE:          0
cpu0->LLC RFO          ACCESS:       8967 HIT:       3886 MISS:       5081 MSHR_MERGE:          0
cpu0->LLC PREFETCH     ACCESS:        981 HIT:        234 MISS:        747 MSHR_MERGE:          0
cpu0->LLC WRITE        ACCESS:      32534 HIT:      32407 MISS:        127 MSHR_MERGE:          0
cpu0->LLC TRANSLATION  ACCESS:      35473 HIT:      10906 MISS:      24567 MSHR_MERGE:          0
cpu0->LLC PREFETCH REQUESTED:          0 ISSUED:          0 USEFUL:          0 USELESS:          0
cpu0->LLC AVERAGE MISS LATENCY: 186.4 cycles

DRAM Statistics

Channel 0 RQ ROW_BUFFER_HIT:        304
  ROW_BUFFER_MISS:      73439
  AVG DBUS CONGESTED CYCLE: 20.12
Channel 0 WQ ROW_BUFFER_HIT:       6034
  ROW_BUFFER_MISS:      13211
  FULL:          0
Channel 0 REFRESHES ISSUED:       1481
